MODEL 1
REMARK VINA RESULT:      -8.7      0.000      0.000
REMARK  6 active torsions:
REMARK  status: ('A' for Active; 'I' for Inactive)
REMARK    1  A    between atoms: O_2  and  C_12 
REMARK    2  A    between atoms: O_3  and  C_14 
REMARK    3  A    between atoms: O_4  and  C_20 
REMARK    4  A    between atoms: O_6  and  C_18 
REMARK    5  A    between atoms: O_7  and  C_22 
REMARK    6  A    between atoms: C_9  and  C_11 
ROOT
ATOM      1  O   UNK     0      32.430  21.089  24.610  1.00  0.00    -0.306 OA
ATOM      2  O   UNK     0      32.519  18.910  28.042  1.00  0.00    -0.284 OA
ATOM      3  C   UNK     0      33.423  19.278  25.894  1.00  0.00     0.084 A 
ATOM      4  C   UNK     0      31.563  21.348  25.659  1.00  0.00     0.123 A 
ATOM      5  C   UNK     0      33.335  20.065  24.748  1.00  0.00     0.096 A 
ATOM      6  C   UNK     0      31.539  20.670  26.820  1.00  0.00     0.152 A 
ATOM      7  C   UNK     0      32.503  19.561  27.001  1.00  0.00     0.223 A 
ATOM      8  C   UNK     0      34.368  18.251  25.972  1.00  0.00     0.085 A 
ATOM      9  C   UNK     0      34.193  19.826  23.674  1.00  0.00     0.075 A 
ATOM     10  C   UNK     0      35.131  18.801  23.762  1.00  0.00     0.071 A 
ATOM     11  C   UNK     0      35.228  18.009  24.903  1.00  0.00     0.074 A 
ENDROOT
BRANCH   4  12
ATOM     12  C   UNK     0      30.635  22.451  25.386  1.00  0.00     0.004 A 
ATOM     13  C   UNK     0      29.251  22.254  25.483  1.00  0.00     0.054 A 
ATOM     14  C   UNK     0      28.387  23.317  25.224  1.00  0.00     0.102 A 
ATOM     15  C   UNK     0      28.893  24.577  24.911  1.00  0.00     0.099 A 
ATOM     16  C   UNK     0      30.261  24.782  24.800  1.00  0.00     0.040 A 
ATOM     17  C   UNK     0      31.134  23.717  25.035  1.00  0.00     0.017 A 
BRANCH  14  18
ATOM     18  O   UNK     0      27.030  23.156  25.342  1.00  0.00    -0.353 OA
ATOM     19  C   UNK     0      26.673  23.037  26.721  1.00  0.00     0.210 C 
ENDBRANCH  14  18
BRANCH  15  20
ATOM     20  O   UNK     0      28.054  25.636  24.712  1.00  0.00    -0.358 OA
ATOM     21  H   UNK     0      27.890  25.660  23.751  1.00  0.00     0.217 HD
ENDBRANCH  15  20
ENDBRANCH   4  12
BRANCH   6  22
ATOM     22  O   UNK     0      30.666  20.940  27.856  1.00  0.00    -0.355 OA
ATOM     23  H   UNK     0      31.110  20.608  28.663  1.00  0.00     0.218 HD
ENDBRANCH   6  22
BRANCH   8  24
ATOM     24  O   UNK     0      34.507  17.443  27.068  1.00  0.00    -0.360 OA
ATOM     25  H   UNK     0      35.188  16.762  26.869  1.00  0.00     0.217 HD
ENDBRANCH   8  24
BRANCH  10  26
ATOM     26  O   UNK     0      35.950  18.601  22.689  1.00  0.00    -0.361 OA
ATOM     27  H   UNK     0      35.873  19.360  22.087  1.00  0.00     0.217 HD
ENDBRANCH  10  26
TORSDOF 6
ENDMDL
MODEL 2
REMARK VINA RESULT:      -8.4      1.892      6.981
REMARK  6 active torsions:
REMARK  status: ('A' for Active; 'I' for Inactive)
REMARK    1  A    between atoms: O_2  and  C_12 
REMARK    2  A    between atoms: O_3  and  C_14 
REMARK    3  A    between atoms: O_4  and  C_20 
REMARK    4  A    between atoms: O_6  and  C_18 
REMARK    5  A    between atoms: O_7  and  C_22 
REMARK    6  A    between atoms: C_9  and  C_11 
ROOT
ATOM      1  O   UNK     0      31.091  21.293  25.541  1.00  0.00    -0.306 OA
ATOM      2  O   UNK     0      32.073  25.006  26.877  1.00  0.00    -0.284 OA
ATOM      3  C   UNK     0      30.409  23.350  26.643  1.00  0.00     0.084 A 
ATOM      4  C   UNK     0      32.367  21.807  25.387  1.00  0.00     0.123 A 
ATOM      5  C   UNK     0      30.143  22.070  26.161  1.00  0.00     0.096 A 
ATOM      6  C   UNK     0      32.761  23.022  25.806  1.00  0.00     0.152 A 
ATOM      7  C   UNK     0      31.764  23.885  26.478  1.00  0.00     0.223 A 
ATOM      8  C   UNK     0      29.399  24.090  27.266  1.00  0.00     0.085 A 
ATOM      9  C   UNK     0      28.866  21.527  26.298  1.00  0.00     0.075 A 
ATOM     10  C   UNK     0      27.867  22.273  26.920  1.00  0.00     0.071 A 
ATOM     11  C   UNK     0      28.122  23.552  27.407  1.00  0.00     0.074 A 
ENDROOT
BRANCH   4  12
ATOM     12  C   UNK     0      33.282  20.890  24.697  1.00  0.00     0.004 A 
ATOM     13  C   UNK     0      33.585  19.640  25.253  1.00  0.00     0.054 A 
ATOM     14  C   UNK     0      34.453  18.782  24.579  1.00  0.00     0.102 A 
ATOM     15  C   UNK     0      34.984  19.144  23.342  1.00  0.00     0.099 A 
ATOM     16  C   UNK     0      34.702  20.384  22.788  1.00  0.00     0.040 A 
ATOM     17  C   UNK     0      33.852  21.260  23.468  1.00  0.00     0.017 A 
BRANCH  14  18
ATOM     18  O   UNK     0      34.740  17.541  25.088  1.00  0.00    -0.353 OA
ATOM     19  C   UNK     0      34.505  17.529  26.499  1.00  0.00     0.210 C 
ENDBRANCH  14  18
BRANCH  15  20
ATOM     20  O   UNK     0      35.789  18.285  22.651  1.00  0.00    -0.358 OA
ATOM     21  H   UNK     0      36.057  17.605  23.295  1.00  0.00     0.217 HD
ENDBRANCH  15  20
ENDBRANCH   4  12
BRANCH   6  22
ATOM     22  O   UNK     0      34.039  23.521  25.643  1.00  0.00    -0.355 OA
ATOM     23  H   UNK     0      33.947  24.274  25.024  1.00  0.00     0.218 HD
ENDBRANCH   6  22
BRANCH   8  24
ATOM     24  O   UNK     0      29.593  25.351  27.762  1.00  0.00    -0.360 OA
ATOM     25  H   UNK     0      28.751  25.851  27.681  1.00  0.00     0.217 HD
ENDBRANCH   8  24
BRANCH  10  26
ATOM     26  O   UNK     0      26.632  21.704  27.034  1.00  0.00    -0.361 OA
ATOM     27  H   UNK     0      26.578  21.236  27.884  1.00  0.00     0.217 HD
ENDBRANCH  10  26
TORSDOF 6
ENDMDL
MODEL 3
REMARK VINA RESULT:      -8.3      2.167      7.035
REMARK  6 active torsions:
REMARK  status: ('A' for Active; 'I' for Inactive)
REMARK    1  A    between atoms: O_2  and  C_12 
REMARK    2  A    between atoms: O_3  and  C_14 
REMARK    3  A    between atoms: O_4  and  C_20 
REMARK    4  A    between atoms: O_6  and  C_18 
REMARK    5  A    between atoms: O_7  and  C_22 
REMARK    6  A    between atoms: C_9  and  C_11 
ROOT
ATOM      1  O   UNK     0      31.287  21.255  25.430  1.00  0.00    -0.306 OA
ATOM      2  O   UNK     0      32.393  24.897  26.859  1.00  0.00    -0.284 OA
ATOM      3  C   UNK     0      30.687  23.285  26.626  1.00  0.00     0.084 A 
ATOM      4  C   UNK     0      32.569  21.748  25.250  1.00  0.00     0.123 A 
ATOM      5  C   UNK     0      30.377  22.029  26.109  1.00  0.00     0.096 A 
ATOM      6  C   UNK     0      33.002  22.939  25.697  1.00  0.00     0.152 A 
ATOM      7  C   UNK     0      32.046  23.798  26.433  1.00  0.00     0.223 A 
ATOM      8  C   UNK     0      29.715  24.023  27.308  1.00  0.00     0.085 A 
ATOM      9  C   UNK     0      29.095  21.507  26.272  1.00  0.00     0.075 A 
ATOM     10  C   UNK     0      28.134  22.250  26.953  1.00  0.00     0.071 A 
ATOM     11  C   UNK     0      28.432  23.506  27.476  1.00  0.00     0.074 A 
ENDROOT
BRANCH   4  12
ATOM     12  C   UNK     0      33.440  20.838  24.498  1.00  0.00     0.004 A 
ATOM     13  C   UNK     0      34.052  21.263  23.311  1.00  0.00     0.054 A 
ATOM     14  C   UNK     0      34.880  20.385  22.614  1.00  0.00     0.102 A 
ATOM     15  C   UNK     0      35.132  19.107  23.112  1.00  0.00     0.099 A 
ATOM     16  C   UNK     0      34.522  18.671  24.279  1.00  0.00     0.040 A 
ATOM     17  C   UNK     0      33.672  19.537  24.972  1.00  0.00     0.017 A 
BRANCH  14  18
ATOM     18  O   UNK     0      35.514  20.788  21.466  1.00  0.00    -0.353 OA
ATOM     19  C   UNK     0      35.076  22.100  21.105  1.00  0.00     0.210 C 
ENDBRANCH  14  18
BRANCH  15  20
ATOM     20  O   UNK     0      35.987  18.262  22.464  1.00  0.00    -0.358 OA
ATOM     21  H   UNK     0      36.555  18.836  21.918  1.00  0.00     0.217 HD
ENDBRANCH  15  20
ENDBRANCH   4  12
BRANCH   6  22
ATOM     22  O   UNK     0      34.284  23.418  25.507  1.00  0.00    -0.355 OA
ATOM     23  H   UNK     0      34.871  22.644  25.633  1.00  0.00     0.218 HD
ENDBRANCH   6  22
BRANCH   8  24
ATOM     24  O   UNK     0      29.953  25.261  27.841  1.00  0.00    -0.360 OA
ATOM     25  H   UNK     0      30.065  25.166  28.813  1.00  0.00     0.217 HD
ENDBRANCH   8  24
BRANCH  10  26
ATOM     26  O   UNK     0      26.891  21.702  27.090  1.00  0.00    -0.361 OA
ATOM     27  H   UNK     0      26.812  20.946  26.485  1.00  0.00     0.217 HD
ENDBRANCH  10  26
TORSDOF 6
ENDMDL
MODEL 4
REMARK VINA RESULT:      -8.3      1.467      7.339
REMARK  6 active torsions:
REMARK  status: ('A' for Active; 'I' for Inactive)
REMARK    1  A    between atoms: O_2  and  C_12 
REMARK    2  A    between atoms: O_3  and  C_14 
REMARK    3  A    between atoms: O_4  and  C_20 
REMARK    4  A    between atoms: O_6  and  C_18 
REMARK    5  A    between atoms: O_7  and  C_22 
REMARK    6  A    between atoms: C_9  and  C_11 
ROOT
ATOM      1  O   UNK     0      30.359  21.472  25.554  1.00  0.00    -0.306 OA
ATOM      2  O   UNK     0      31.785  25.279  25.476  1.00  0.00    -0.284 OA
ATOM      3  C   UNK     0      29.903  23.857  25.423  1.00  0.00     0.084 A 
ATOM      4  C   UNK     0      31.716  21.742  25.624  1.00  0.00     0.123 A 
ATOM      5  C   UNK     0      29.486  22.528  25.454  1.00  0.00     0.096 A 
ATOM      6  C   UNK     0      32.255  22.973  25.606  1.00  0.00     0.152 A 
ATOM      7  C   UNK     0      31.341  24.134  25.500  1.00  0.00     0.223 A 
ATOM      8  C   UNK     0      28.964  24.887  25.321  1.00  0.00     0.085 A 
ATOM      9  C   UNK     0      28.127  22.225  25.383  1.00  0.00     0.075 A 
ATOM     10  C   UNK     0      27.198  23.258  25.282  1.00  0.00     0.071 A 
ATOM     11  C   UNK     0      27.604  24.590  25.251  1.00  0.00     0.074 A 
ENDROOT
BRANCH   4  12
ATOM     12  C   UNK     0      32.544  20.534  25.711  1.00  0.00     0.004 A 
ATOM     13  C   UNK     0      33.341  20.142  24.627  1.00  0.00     0.054 A 
ATOM     14  C   UNK     0      34.124  18.993  24.732  1.00  0.00     0.102 A 
ATOM     15  C   UNK     0      34.148  18.262  25.919  1.00  0.00     0.099 A 
ATOM     16  C   UNK     0      33.354  18.633  26.994  1.00  0.00     0.040 A 
ATOM     17  C   UNK     0      32.548  19.769  26.889  1.00  0.00     0.017 A 
BRANCH  14  18
ATOM     18  O   UNK     0      34.936  18.607  23.696  1.00  0.00    -0.353 OA
ATOM     19  C   UNK     0      36.076  19.466  23.625  1.00  0.00     0.210 C 
ENDBRANCH  14  18
BRANCH  15  20
ATOM     20  O   UNK     0      34.956  17.168  26.047  1.00  0.00    -0.358 OA
ATOM     21  H   UNK     0      35.866  17.509  25.972  1.00  0.00     0.217 HD
ENDBRANCH  15  20
ENDBRANCH   4  12
BRANCH   6  22
ATOM     22  O   UNK     0      33.611  23.226  25.674  1.00  0.00    -0.355 OA
ATOM     23  H   UNK     0      33.973  22.939  24.811  1.00  0.00     0.218 HD
ENDBRANCH   6  22
BRANCH   8  24
ATOM     24  O   UNK     0      29.306  26.212  25.286  1.00  0.00    -0.360 OA
ATOM     25  H   UNK     0      30.271  26.280  25.115  1.00  0.00     0.217 HD
ENDBRANCH   8  24
BRANCH  10  26
ATOM     26  O   UNK     0      25.879  22.918  25.214  1.00  0.00    -0.361 OA
ATOM     27  H   UNK     0      25.730  22.122  25.753  1.00  0.00     0.217 HD
ENDBRANCH  10  26
TORSDOF 6
ENDMDL
MODEL 5
REMARK VINA RESULT:      -8.3      2.315      8.041
REMARK  6 active torsions:
REMARK  status: ('A' for Active; 'I' for Inactive)
REMARK    1  A    between atoms: O_2  and  C_12 
REMARK    2  A    between atoms: O_3  and  C_14 
REMARK    3  A    between atoms: O_4  and  C_20 
REMARK    4  A    between atoms: O_6  and  C_18 
REMARK    5  A    between atoms: O_7  and  C_22 
REMARK    6  A    between atoms: C_9  and  C_11 
ROOT
ATOM      1  O   UNK     0      27.559  22.691  25.124  1.00  0.00    -0.306 OA
ATOM      2  O   UNK     0      27.686  26.755  25.104  1.00  0.00    -0.284 OA
ATOM      3  C   UNK     0      26.519  24.798  24.497  1.00  0.00     0.084 A 
ATOM      4  C   UNK     0      28.612  23.389  25.693  1.00  0.00     0.123 A 
ATOM      5  C   UNK     0      26.541  23.405  24.540  1.00  0.00     0.096 A 
ATOM      6  C   UNK     0      28.716  24.729  25.725  1.00  0.00     0.152 A 
ATOM      7  C   UNK     0      27.635  25.528  25.104  1.00  0.00     0.223 A 
ATOM      8  C   UNK     0      25.452  25.465  23.888  1.00  0.00     0.085 A 
ATOM      9  C   UNK     0      25.497  22.675  23.973  1.00  0.00     0.075 A 
ATOM     10  C   UNK     0      24.439  23.350  23.368  1.00  0.00     0.071 A 
ATOM     11  C   UNK     0      24.405  24.742  23.320  1.00  0.00     0.074 A 
ENDROOT
BRANCH   4  12
ATOM     12  C   UNK     0      29.642  22.516  26.268  1.00  0.00     0.004 A 
ATOM     13  C   UNK     0      30.658  21.991  25.459  1.00  0.00     0.054 A 
ATOM     14  C   UNK     0      31.630  21.168  26.027  1.00  0.00     0.102 A 
ATOM     15  C   UNK     0      31.618  20.902  27.395  1.00  0.00     0.099 A 
ATOM     16  C   UNK     0      30.610  21.406  28.204  1.00  0.00     0.040 A 
ATOM     17  C   UNK     0      29.619  22.213  27.640  1.00  0.00     0.017 A 
BRANCH  14  18
ATOM     18  O   UNK     0      32.651  20.666  25.260  1.00  0.00    -0.353 OA
ATOM     19  C   UNK     0      33.233  21.713  24.480  1.00  0.00     0.210 C 
ENDBRANCH  14  18
BRANCH  15  20
ATOM     20  O   UNK     0      32.599  20.143  27.966  1.00  0.00    -0.358 OA
ATOM     21  H   UNK     0      33.279  20.777  28.259  1.00  0.00     0.217 HD
ENDBRANCH  15  20
ENDBRANCH   4  12
BRANCH   6  22
ATOM     22  O   UNK     0      29.775  25.409  26.295  1.00  0.00    -0.355 OA
ATOM     23  H   UNK     0      30.534  24.792  26.252  1.00  0.00     0.218 HD
ENDBRANCH   6  22
BRANCH   8  24
ATOM     24  O   UNK     0      25.367  26.829  23.812  1.00  0.00    -0.360 OA
ATOM     25  H   UNK     0      25.844  27.214  24.581  1.00  0.00     0.217 HD
ENDBRANCH   8  24
BRANCH  10  26
ATOM     26  O   UNK     0      23.438  22.598  22.825  1.00  0.00    -0.361 OA
ATOM     27  H   UNK     0      22.702  23.183  22.578  1.00  0.00     0.217 HD
ENDBRANCH  10  26
TORSDOF 6
ENDMDL
MODEL 6
REMARK VINA RESULT:      -8.1      1.110      2.015
REMARK  6 active torsions:
REMARK  status: ('A' for Active; 'I' for Inactive)
REMARK    1  A    between atoms: O_2  and  C_12 
REMARK    2  A    between atoms: O_3  and  C_14 
REMARK    3  A    between atoms: O_4  and  C_20 
REMARK    4  A    between atoms: O_6  and  C_18 
REMARK    5  A    between atoms: O_7  and  C_22 
REMARK    6  A    between atoms: C_9  and  C_11 
ROOT
ATOM      1  O   UNK     0      31.922  21.646  24.801  1.00  0.00    -0.306 OA
ATOM      2  O   UNK     0      32.034  19.403  28.190  1.00  0.00    -0.284 OA
ATOM      3  C   UNK     0      32.907  19.797  26.034  1.00  0.00     0.084 A 
ATOM      4  C   UNK     0      31.077  21.899  25.869  1.00  0.00     0.123 A 
ATOM      5  C   UNK     0      32.813  20.606  24.904  1.00  0.00     0.096 A 
ATOM      6  C   UNK     0      31.062  21.201  27.017  1.00  0.00     0.152 A 
ATOM      7  C   UNK     0      32.011  20.073  27.161  1.00  0.00     0.223 A 
ATOM      8  C   UNK     0      33.836  18.753  26.076  1.00  0.00     0.085 A 
ATOM      9  C   UNK     0      33.648  20.373  23.811  1.00  0.00     0.075 A 
ATOM     10  C   UNK     0      34.571  19.331  23.864  1.00  0.00     0.071 A 
ATOM     11  C   UNK     0      34.674  18.517  24.989  1.00  0.00     0.074 A 
ENDROOT
BRANCH   4  12
ATOM     12  C   UNK     0      30.163  23.022  25.632  1.00  0.00     0.004 A 
ATOM     13  C   UNK     0      30.590  24.340  25.841  1.00  0.00     0.054 A 
ATOM     14  C   UNK     0      29.708  25.393  25.605  1.00  0.00     0.102 A 
ATOM     15  C   UNK     0      28.423  25.143  25.125  1.00  0.00     0.099 A 
ATOM     16  C   UNK     0      27.984  23.842  24.925  1.00  0.00     0.040 A 
ATOM     17  C   UNK     0      28.855  22.779  25.181  1.00  0.00     0.017 A 
BRANCH  14  18
ATOM     18  O   UNK     0      30.113  26.693  25.774  1.00  0.00    -0.353 OA
ATOM     19  C   UNK     0      31.471  26.724  26.221  1.00  0.00     0.210 C 
ENDBRANCH  14  18
BRANCH  15  20
ATOM     20  O   UNK     0      27.573  26.172  24.837  1.00  0.00    -0.358 OA
ATOM     21  H   UNK     0      26.762  25.752  24.498  1.00  0.00     0.217 HD
ENDBRANCH  15  20
ENDBRANCH   4  12
BRANCH   6  22
ATOM     22  O   UNK     0      30.211  21.466  28.073  1.00  0.00    -0.355 OA
ATOM     23  H   UNK     0      30.415  20.786  28.747  1.00  0.00     0.218 HD
ENDBRANCH   6  22
BRANCH   8  24
ATOM     24  O   UNK     0      33.981  17.923  27.155  1.00  0.00    -0.360 OA
ATOM     25  H   UNK     0      33.170  17.985  27.708  1.00  0.00     0.217 HD
ENDBRANCH   8  24
BRANCH  10  26
ATOM     26  O   UNK     0      35.368  19.138  22.773  1.00  0.00    -0.361 OA
ATOM     27  H   UNK     0      35.863  18.309  22.887  1.00  0.00     0.217 HD
ENDBRANCH  10  26
TORSDOF 6
ENDMDL
MODEL 7
REMARK VINA RESULT:      -7.9      1.447      6.722
REMARK  6 active torsions:
REMARK  status: ('A' for Active; 'I' for Inactive)
REMARK    1  A    between atoms: O_2  and  C_12 
REMARK    2  A    between atoms: O_3  and  C_14 
REMARK    3  A    between atoms: O_4  and  C_20 
REMARK    4  A    between atoms: O_6  and  C_18 
REMARK    5  A    between atoms: O_7  and  C_22 
REMARK    6  A    between atoms: C_9  and  C_11 
ROOT
ATOM      1  O   UNK     0      31.721  21.884  24.842  1.00  0.00    -0.306 OA
ATOM      2  O   UNK     0      30.805  20.762  28.642  1.00  0.00    -0.284 OA
ATOM      3  C   UNK     0      30.321  22.167  26.809  1.00  0.00     0.084 A 
ATOM      4  C   UNK     0      32.427  20.888  25.497  1.00  0.00     0.123 A 
ATOM      5  C   UNK     0      30.690  22.501  25.508  1.00  0.00     0.096 A 
ATOM      6  C   UNK     0      32.177  20.466  26.748  1.00  0.00     0.152 A 
ATOM      7  C   UNK     0      31.071  21.110  27.494  1.00  0.00     0.223 A 
ATOM      8  C   UNK     0      29.260  22.833  27.432  1.00  0.00     0.085 A 
ATOM      9  C   UNK     0      30.001  23.502  24.825  1.00  0.00     0.075 A 
ATOM     10  C   UNK     0      28.945  24.159  25.453  1.00  0.00     0.071 A 
ATOM     11  C   UNK     0      28.567  23.833  26.753  1.00  0.00     0.074 A 
ENDROOT
BRANCH   4  12
ATOM     12  C   UNK     0      33.512  20.319  24.689  1.00  0.00     0.004 A 
ATOM     13  C   UNK     0      34.114  21.079  23.677  1.00  0.00     0.054 A 
ATOM     14  C   UNK     0      35.147  20.521  22.924  1.00  0.00     0.102 A 
ATOM     15  C   UNK     0      35.607  19.234  23.200  1.00  0.00     0.099 A 
ATOM     16  C   UNK     0      35.010  18.468  24.191  1.00  0.00     0.040 A 
ATOM     17  C   UNK     0      33.959  19.011  24.935  1.00  0.00     0.017 A 
BRANCH  14  18
ATOM     18  O   UNK     0      35.772  21.256  21.949  1.00  0.00    -0.353 OA
ATOM     19  C   UNK     0      34.802  21.988  21.196  1.00  0.00     0.210 C 
ENDBRANCH  14  18
BRANCH  15  20
ATOM     20  O   UNK     0      36.655  18.704  22.505  1.00  0.00    -0.358 OA
ATOM     21  H   UNK     0      37.031  18.017  23.085  1.00  0.00     0.217 HD
ENDBRANCH  15  20
ENDBRANCH   4  12
BRANCH   6  22
ATOM     22  O   UNK     0      32.891  19.472  27.388  1.00  0.00    -0.355 OA
ATOM     23  H   UNK     0      33.307  19.906  28.160  1.00  0.00     0.218 HD
ENDBRANCH   6  22
BRANCH   8  24
ATOM     24  O   UNK     0      28.846  22.554  28.706  1.00  0.00    -0.360 OA
ATOM     25  H   UNK     0      29.199  21.674  28.963  1.00  0.00     0.217 HD
ENDBRANCH   8  24
BRANCH  10  26
ATOM     26  O   UNK     0      28.298  25.132  24.749  1.00  0.00    -0.361 OA
ATOM     27  H   UNK     0      27.537  24.736  24.291  1.00  0.00     0.217 HD
ENDBRANCH  10  26
TORSDOF 6
ENDMDL
MODEL 8
REMARK VINA RESULT:      -7.8      3.042      8.425
REMARK  6 active torsions:
REMARK  status: ('A' for Active; 'I' for Inactive)
REMARK    1  A    between atoms: O_2  and  C_12 
REMARK    2  A    between atoms: O_3  and  C_14 
REMARK    3  A    between atoms: O_4  and  C_20 
REMARK    4  A    between atoms: O_6  and  C_18 
REMARK    5  A    between atoms: O_7  and  C_22 
REMARK    6  A    between atoms: C_9  and  C_11 
ROOT
ATOM      1  O   UNK     0      27.231  23.533  24.234  1.00  0.00    -0.306 OA
ATOM      2  O   UNK     0      26.402  27.479  24.755  1.00  0.00    -0.284 OA
ATOM      3  C   UNK     0      25.626  25.354  24.089  1.00  0.00     0.084 A 
ATOM      4  C   UNK     0      28.183  24.419  24.708  1.00  0.00     0.123 A 
ATOM      5  C   UNK     0      25.980  24.015  23.934  1.00  0.00     0.096 A 
ATOM      6  C   UNK     0      27.978  25.733  24.907  1.00  0.00     0.152 A 
ATOM      7  C   UNK     0      26.640  26.285  24.594  1.00  0.00     0.223 A 
ATOM      8  C   UNK     0      24.335  25.781  23.766  1.00  0.00     0.085 A 
ATOM      9  C   UNK     0      25.044  23.099  23.456  1.00  0.00     0.075 A 
ATOM     10  C   UNK     0      23.759  23.535  23.138  1.00  0.00     0.071 A 
ATOM     11  C   UNK     0      23.394  24.871  23.289  1.00  0.00     0.074 A 
ENDROOT
BRANCH   4  12
ATOM     12  C   UNK     0      29.481  23.788  24.976  1.00  0.00     0.004 A 
ATOM     13  C   UNK     0      29.566  22.674  25.822  1.00  0.00     0.054 A 
ATOM     14  C   UNK     0      30.808  22.087  26.059  1.00  0.00     0.102 A 
ATOM     15  C   UNK     0      31.951  22.575  25.428  1.00  0.00     0.099 A 
ATOM     16  C   UNK     0      31.882  23.684  24.597  1.00  0.00     0.040 A 
ATOM     17  C   UNK     0      30.645  24.294  24.373  1.00  0.00     0.017 A 
BRANCH  14  18
ATOM     18  O   UNK     0      30.912  20.978  26.860  1.00  0.00    -0.353 OA
ATOM     19  C   UNK     0      30.898  21.369  28.235  1.00  0.00     0.210 C 
ENDBRANCH  14  18
BRANCH  15  20
ATOM     20  O   UNK     0      33.161  21.968  25.611  1.00  0.00    -0.358 OA
ATOM     21  H   UNK     0      33.754  22.667  25.943  1.00  0.00     0.217 HD
ENDBRANCH  15  20
ENDBRANCH   4  12
BRANCH   6  22
ATOM     22  O   UNK     0      28.940  26.605  25.379  1.00  0.00    -0.355 OA
ATOM     23  H   UNK     0      29.603  26.041  25.828  1.00  0.00     0.218 HD
ENDBRANCH   6  22
BRANCH   8  24
ATOM     24  O   UNK     0      23.922  27.080  23.895  1.00  0.00    -0.360 OA
ATOM     25  H   UNK     0      23.342  27.300  23.132  1.00  0.00     0.217 HD
ENDBRANCH   8  24
BRANCH  10  26
ATOM     26  O   UNK     0      22.874  22.607  22.672  1.00  0.00    -0.361 OA
ATOM     27  H   UNK     0      22.577  22.871  21.785  1.00  0.00     0.217 HD
ENDBRANCH  10  26
TORSDOF 6
ENDMDL
MODEL 9
REMARK VINA RESULT:      -7.7      2.070      7.748
REMARK  6 active torsions:
REMARK  status: ('A' for Active; 'I' for Inactive)
REMARK    1  A    between atoms: O_2  and  C_12 
REMARK    2  A    between atoms: O_3  and  C_14 
REMARK    3  A    between atoms: O_4  and  C_20 
REMARK    4  A    between atoms: O_6  and  C_18 
REMARK    5  A    between atoms: O_7  and  C_22 
REMARK    6  A    between atoms: C_9  and  C_11 
ROOT
ATOM      1  O   UNK     0      30.361  24.574  26.292  1.00  0.00    -0.306 OA
ATOM      2  O   UNK     0      26.638  24.299  24.682  1.00  0.00    -0.284 OA
ATOM      3  C   UNK     0      28.354  25.695  25.500  1.00  0.00     0.084 A 
ATOM      4  C   UNK     0      29.793  23.351  25.978  1.00  0.00     0.123 A 
ATOM      5  C   UNK     0      29.634  25.714  26.050  1.00  0.00     0.096 A 
ATOM      6  C   UNK     0      28.571  23.187  25.442  1.00  0.00     0.152 A 
ATOM      7  C   UNK     0      27.762  24.396  25.168  1.00  0.00     0.223 A 
ATOM      8  C   UNK     0      27.666  26.892  25.278  1.00  0.00     0.085 A 
ATOM      9  C   UNK     0      30.231  26.931  26.379  1.00  0.00     0.075 A 
ATOM     10  C   UNK     0      29.537  28.118  26.153  1.00  0.00     0.071 A 
ATOM     11  C   UNK     0      28.258  28.111  25.603  1.00  0.00     0.074 A 
ENDROOT
BRANCH   4  12
ATOM     12  C   UNK     0      30.660  22.210  26.298  1.00  0.00     0.004 A 
ATOM     13  C   UNK     0      31.602  21.753  25.366  1.00  0.00     0.054 A 
ATOM     14  C   UNK     0      32.418  20.671  25.692  1.00  0.00     0.102 A 
ATOM     15  C   UNK     0      32.330  20.073  26.949  1.00  0.00     0.099 A 
ATOM     16  C   UNK     0      31.394  20.509  27.875  1.00  0.00     0.040 A 
ATOM     17  C   UNK     0      30.555  21.578  27.548  1.00  0.00     0.017 A 
BRANCH  14  18
ATOM     18  O   UNK     0      33.368  20.224  24.808  1.00  0.00    -0.353 OA
ATOM     19  C   UNK     0      33.531  21.173  23.751  1.00  0.00     0.210 C 
ENDBRANCH  14  18
BRANCH  15  20
ATOM     20  O   UNK     0      33.166  19.051  27.294  1.00  0.00    -0.358 OA
ATOM     21  H   UNK     0      34.012  19.246  26.851  1.00  0.00     0.217 HD
ENDBRANCH  15  20
ENDBRANCH   4  12
BRANCH   6  22
ATOM     22  O   UNK     0      28.019  21.958  25.136  1.00  0.00    -0.355 OA
ATOM     23  H   UNK     0      27.904  21.960  24.164  1.00  0.00     0.218 HD
ENDBRANCH   6  22
BRANCH   8  24
ATOM     24  O   UNK     0      26.408  26.943  24.741  1.00  0.00    -0.360 OA
ATOM     25  H   UNK     0      25.775  26.572  25.394  1.00  0.00     0.217 HD
ENDBRANCH   8  24
BRANCH  10  26
ATOM     26  O   UNK     0      30.157  29.286  26.490  1.00  0.00    -0.361 OA
ATOM     27  H   UNK     0      30.932  29.409  25.915  1.00  0.00     0.217 HD
ENDBRANCH  10  26
TORSDOF 6
ENDMDL
