REMARK  6 active torsions:
REMARK  status: ('A' for Active; 'I' for Inactive)
REMARK    1  A    between atoms: O_2  and  C_12 
REMARK    2  A    between atoms: O_3  and  C_14 
REMARK    3  A    between atoms: O_4  and  C_20 
REMARK    4  A    between atoms: O_6  and  C_18 
REMARK    5  A    between atoms: O_7  and  C_22 
REMARK    6  A    between atoms: C_9  and  C_11 
ROOT
ATOM      1  O   UNK     0      20.881  11.716 -18.027  1.00  0.00    -0.306 OA
ATOM      2  O   UNK     0      20.035  15.551 -19.081  1.00  0.00    -0.284 OA
ATOM      3  C   UNK     0      19.806  13.255 -19.572  1.00  0.00     0.084 A 
ATOM      4  C   UNK     0      21.330  12.792 -17.279  1.00  0.00     0.123 A 
ATOM      5  C   UNK     0      20.134  11.968 -19.152  1.00  0.00     0.096 A 
ATOM      6  C   UNK     0      21.086  14.082 -17.567  1.00  0.00     0.152 A 
ATOM      7  C   UNK     0      20.283  14.388 -18.773  1.00  0.00     0.223 A 
ATOM      8  C   UNK     0      19.041  13.444 -20.727  1.00  0.00     0.085 A 
ATOM      9  C   UNK     0      19.699  10.865 -19.886  1.00  0.00     0.075 A 
ATOM     10  C   UNK     0      18.937  11.064 -21.035  1.00  0.00     0.071 A 
ATOM     11  C   UNK     0      18.602  12.346 -21.464  1.00  0.00     0.074 A 
ENDROOT
BRANCH   4  12
ATOM     12  C   UNK     0      22.129  12.395 -16.114  1.00  0.00     0.004 A 
ATOM     13  C   UNK     0      21.510  12.148 -14.881  1.00  0.00     0.054 A 
ATOM     14  C   UNK     0      22.287  11.767 -13.788  1.00  0.00     0.102 A 
ATOM     15  C   UNK     0      23.663  11.592 -13.927  1.00  0.00     0.099 A 
ATOM     16  C   UNK     0      24.289  11.845 -15.139  1.00  0.00     0.040 A 
ATOM     17  C   UNK     0      23.521  12.250 -16.234  1.00  0.00     0.017 A 
BRANCH  14  18
ATOM     18  O   UNK     0      21.700  11.491 -12.579  1.00  0.00    -0.353 OA
ATOM     19  C   UNK     0      21.507  12.703 -11.845  1.00  0.00     0.210 C 
ENDBRANCH  14  18
BRANCH  15  20
ATOM     20  O   UNK     0      24.421  11.164 -12.875  1.00  0.00    -0.358 OA
ATOM     21  H   UNK     0      23.784  10.919 -12.179  1.00  0.00     0.217 HD
ENDBRANCH  15  20
ENDBRANCH   4  12
BRANCH   6  22
ATOM     22  O   UNK     0      21.543  15.144 -16.811  1.00  0.00    -0.355 OA
ATOM     23  H   UNK     0      21.223  15.947 -17.271  1.00  0.00     0.218 HD
ENDBRANCH   6  22
BRANCH   8  24
ATOM     24  O   UNK     0      18.683  14.680 -21.194  1.00  0.00    -0.360 OA
ATOM     25  H   UNK     0      19.054  15.361 -20.590  1.00  0.00     0.217 HD
ENDBRANCH   8  24
BRANCH  10  26
ATOM     26  O   UNK     0      18.532   9.958 -21.724  1.00  0.00    -0.361 OA
ATOM     27  H   UNK     0      18.014  10.240 -22.497  1.00  0.00     0.217 HD
ENDBRANCH  10  26
TORSDOF 6
