REMARK  16 active torsions:
REMARK  status: ('A' for Active; 'I' for Inactive)
REMARK    1  A    between atoms: O_2  and  C_22 
REMARK    2  A    between atoms: O_2  and  C_26 
REMARK    3  A    between atoms: O_4  and  C_18 
REMARK    4  A    between atoms: O_5  and  C_19 
REMARK    5  A    between atoms: O_6  and  C_25 
REMARK    6  A    between atoms: O_6  and  C_29 
REMARK    7  A    between atoms: O_7  and  C_20 
REMARK    8  A    between atoms: O_8  and  C_21 
REMARK    9  A    between atoms: O_9  and  C_23 
REMARK   10  A    between atoms: O_10  and  C_24 
REMARK   11  A    between atoms: O_13  and  C_35 
REMARK   12  A    between atoms: O_14  and  C_40 
REMARK   13  A    between atoms: O_15  and  C_41 
REMARK   14  A    between atoms: O_16  and  C_43 
REMARK   15  A    between atoms: C_17  and  C_26 
REMARK   16  A    between atoms: C_30  and  C_33 
ROOT
ATOM      1  O   UNK     0       8.034  -6.160  -5.998  1.00  0.00    -0.348 OA
ATOM      2  C   UNK     0       7.850  -5.724  -4.652  1.00  0.00     0.180 C 
ATOM      3  C   UNK     0       7.502  -4.234  -4.629  1.00  0.00     0.180 C 
ATOM      4  C   UNK     0       8.592  -3.430  -5.352  1.00  0.00     0.183 C 
ATOM      5  C   UNK     0       8.882  -3.988  -6.753  1.00  0.00     0.205 C 
ATOM      6  C   UNK     0       9.119  -5.516  -6.673  1.00  0.00     0.298 C 
ENDROOT
BRANCH   6   7
ATOM      7  O   UNK     0       9.272  -6.006  -8.018  1.00  0.00    -0.311 OA
BRANCH   7   8
ATOM      8  C   UNK     0       8.961  -7.353  -8.136  1.00  0.00     0.157 A 
ATOM      9  C   UNK     0       8.016  -7.781  -8.989  1.00  0.00     0.124 A 
ATOM     10  O   UNK     0       7.617  -9.092  -9.142  1.00  0.00    -0.306 OA
ATOM     11  C   UNK     0       8.166 -10.037  -8.316  1.00  0.00     0.096 A 
ATOM     12  C   UNK     0       9.173  -9.759  -7.388  1.00  0.00     0.084 A 
ATOM     13  C   UNK     0       7.661 -11.332  -8.451  1.00  0.00     0.075 A 
ATOM     14  C   UNK     0       9.665  -8.364  -7.295  1.00  0.00     0.223 A 
ATOM     15  C   UNK     0       9.673 -10.805  -6.596  1.00  0.00     0.085 A 
ATOM     16  O   UNK     0      10.599  -8.031  -6.569  1.00  0.00    -0.284 OA
ATOM     17  C   UNK     0       9.173 -12.105  -6.732  1.00  0.00     0.074 A 
ATOM     18  C   UNK     0       8.167 -12.354  -7.659  1.00  0.00     0.071 A 
BRANCH   9  19
ATOM     19  C   UNK     0       7.269  -6.842  -9.835  1.00  0.00     0.004 A 
ATOM     20  C   UNK     0       6.130  -6.198  -9.333  1.00  0.00     0.053 A 
ATOM     21  C   UNK     0       5.445  -5.295 -10.134  1.00  0.00     0.099 A 
ATOM     22  C   UNK     0       5.861  -5.052 -11.439  1.00  0.00     0.098 A 
ATOM     23  C   UNK     0       7.000  -5.661 -11.944  1.00  0.00     0.040 A 
ATOM     24  C   UNK     0       7.707  -6.560 -11.139  1.00  0.00     0.017 A 
BRANCH  21  25
ATOM     25  O   UNK     0       4.377  -4.625  -9.611  1.00  0.00    -0.358 OA
ATOM     26  H   UNK     0       4.404  -3.731  -9.999  1.00  0.00     0.217 HD
ENDBRANCH  21  25
BRANCH  22  27
ATOM     27  O   UNK     0       5.135  -4.232 -12.255  1.00  0.00    -0.358 OA
ATOM     28  H   UNK     0       4.200  -4.414 -12.047  1.00  0.00     0.217 HD
ENDBRANCH  22  27
ENDBRANCH   9  19
BRANCH  15  29
ATOM     29  O   UNK     0      10.647 -10.576  -5.666  1.00  0.00    -0.360 OA
ATOM     30  H   UNK     0      10.985 -11.413  -5.309  1.00  0.00     0.217 HD
ENDBRANCH  15  29
BRANCH  18  31
ATOM     31  O   UNK     0       7.635 -13.599  -7.817  1.00  0.00    -0.361 OA
ATOM     32  H   UNK     0       8.113 -14.230  -7.253  1.00  0.00     0.217 HD
ENDBRANCH  18  31
ENDBRANCH   7   8
ENDBRANCH   6   7
BRANCH   5  33
ATOM     33  O   UNK     0      10.016  -3.312  -7.329  1.00  0.00    -0.388 OA
ATOM     34  H   UNK     0      10.794  -3.468  -6.770  1.00  0.00     0.210 HD
ENDBRANCH   5  33
BRANCH   2  35
ATOM     35  C   UNK     0       6.749  -6.588  -4.022  1.00  0.00     0.205 C 
BRANCH  35  36
ATOM     36  O   UNK     0       5.551  -6.508  -4.803  1.00  0.00    -0.356 OA
BRANCH  36  37
ATOM     37  C   UNK     0       4.495  -7.286  -4.256  1.00  0.00     0.291 C 
ATOM     38  O   UNK     0       4.801  -8.685  -4.188  1.00  0.00    -0.351 OA
ATOM     39  C   UNK     0       5.066  -9.264  -5.473  1.00  0.00     0.152 C 
ATOM     40  C   UNK     0       3.851  -9.159  -6.409  1.00  0.00     0.178 C 
ATOM     41  C   UNK     0       5.449 -10.720  -5.228  1.00  0.00     0.042 C 
ATOM     42  C   UNK     0       3.340  -7.710  -6.471  1.00  0.00     0.183 C 
ATOM     43  C   UNK     0       3.201  -7.099  -5.070  1.00  0.00     0.204 C 
BRANCH  40  44
ATOM     44  O   UNK     0       4.215  -9.602  -7.720  1.00  0.00    -0.390 OA
ATOM     45  H   UNK     0       4.013 -10.550  -7.782  1.00  0.00     0.210 HD
ENDBRANCH  40  44
BRANCH  42  46
ATOM     46  O   UNK     0       2.053  -7.682  -7.118  1.00  0.00    -0.390 OA
ATOM     47  H   UNK     0       1.394  -7.792  -6.404  1.00  0.00     0.210 HD
ENDBRANCH  42  46
BRANCH  43  48
ATOM     48  O   UNK     0       2.087  -7.745  -4.410  1.00  0.00    -0.388 OA
ATOM     49  H   UNK     0       2.448  -8.518  -3.935  1.00  0.00     0.210 HD
ENDBRANCH  43  48
ENDBRANCH  36  37
ENDBRANCH  35  36
ENDBRANCH   2  35
BRANCH   4  50
ATOM     50  O   UNK     0       8.192  -2.054  -5.421  1.00  0.00    -0.390 OA
ATOM     51  H   UNK     0       7.702  -1.856  -4.600  1.00  0.00     0.210 HD
ENDBRANCH   4  50
BRANCH   3  52
ATOM     52  O   UNK     0       7.377  -3.737  -3.288  1.00  0.00    -0.390 OA
ATOM     53  H   UNK     0       8.234  -3.833  -2.836  1.00  0.00     0.210 HD
ENDBRANCH   3  52
TORSDOF 16
