REMARK  12 active torsions:
REMARK  status: ('A' for Active; 'I' for Inactive)
REMARK    1  A    between atoms: C_17  and  O_2 
REMARK    2  A    between atoms: C_19  and  O_2 
REMARK    3  A    between atoms: C_13  and  O_3 
REMARK    4  A    between atoms: C_14  and  O_4 
REMARK    5  A    between atoms: C_15  and  O_5 
REMARK    6  A    between atoms: C_18  and  O_6 
REMARK    7  A    between atoms: C_25  and  O_9 
REMARK    8  A    between atoms: C_30  and  O_10 
REMARK    9  A    between atoms: C_31  and  O_11 
REMARK   10  A    between atoms: C_33  and  O_12 
REMARK   11  A    between atoms: C_16  and  C_18 
REMARK   12  A    between atoms: C_20  and  C_24 
ROOT
HETATM    1  O   UNL     1       0.108  22.390 -21.411  1.00  0.00    -0.306 OA
HETATM    2  O   UNL     1      -3.113  20.801 -19.487  1.00  0.00    -0.284 OA
HETATM    3  C   UNL     1      -1.797  20.892 -21.488  1.00  0.00     0.157 A 
HETATM    4  C   UNL     1      -0.696  21.450 -22.024  1.00  0.00     0.124 A 
HETATM    5  C   UNL     1      -2.150  21.265 -20.089  1.00  0.00     0.223 A 
HETATM    6  C   UNL     1      -1.272  22.236 -19.418  1.00  0.00     0.084 A 
HETATM    7  C   UNL     1      -0.185  22.752 -20.121  1.00  0.00     0.096 A 
HETATM    8  C   UNL     1      -1.500  22.642 -18.098  1.00  0.00     0.085 A 
HETATM    9  C   UNL     1       0.672  23.677 -19.519  1.00  0.00     0.075 A 
HETATM   10  C   UNL     1      -0.648  23.562 -17.492  1.00  0.00     0.074 A 
HETATM   11  C   UNL     1       0.431  24.073 -18.206  1.00  0.00     0.071 A 
ENDROOT
BRANCH   3  12
HETATM   12  O   UNL     1      -2.541  19.928 -22.150  1.00  0.00    -0.311 OA
BRANCH  12  13
HETATM   13  C   UNL     1      -3.707  20.498 -22.774  1.00  0.00     0.298 C 
HETATM   14  C   UNL     1      -4.151  19.523 -23.879  1.00  0.00     0.205 C 
HETATM   15  C   UNL     1      -5.415  20.065 -24.554  1.00  0.00     0.183 C 
HETATM   16  C   UNL     1      -6.510  20.362 -23.526  1.00  0.00     0.180 C 
HETATM   17  C   UNL     1      -5.947  21.241 -22.399  1.00  0.00     0.179 C 
HETATM   18  O   UNL     1      -4.753  20.675 -21.829  1.00  0.00    -0.348 OA
BRANCH  14  19
HETATM   19  O   UNL     1      -3.147  19.355 -24.895  1.00  0.00    -0.388 OA
HETATM   20  H   UNL     1      -2.321  19.127 -24.426  1.00  0.00     0.210 HD
ENDBRANCH  14  19
BRANCH  15  21
HETATM   21  O   UNL     1      -5.906  19.101 -25.500  1.00  0.00    -0.390 OA
HETATM   22  H   UNL     1      -5.120  18.840 -26.023  1.00  0.00     0.210 HD
ENDBRANCH  15  21
BRANCH  16  23
HETATM   23  O   UNL     1      -7.002  19.118 -23.016  1.00  0.00    -0.390 OA
HETATM   24  H   UNL     1      -7.129  18.550 -23.805  1.00  0.00     0.210 HD
ENDBRANCH  16  23
BRANCH  17  25
HETATM   25  C   UNL     1      -6.938  21.413 -21.247  1.00  0.00     0.198 C 
BRANCH  25  26
HETATM   26  O   UNL     1      -6.346  22.259 -20.254  1.00  0.00    -0.398 OA
HETATM   27  H   UNL     1      -5.518  21.801 -19.999  1.00  0.00     0.209 HD
ENDBRANCH  25  26
ENDBRANCH  17  25
ENDBRANCH  12  13
ENDBRANCH   3  12
BRANCH   4  28
HETATM   28  C   UNL     1      -0.255  21.113 -23.385  1.00  0.00     0.004 A 
HETATM   29  C   UNL     1       0.474  19.937 -23.626  1.00  0.00     0.017 A 
HETATM   30  C   UNL     1       0.863  19.595 -24.926  1.00  0.00     0.040 A 
HETATM   31  C   UNL     1       0.515  20.434 -25.978  1.00  0.00     0.098 A 
HETATM   32  C   UNL     1      -0.206  21.601 -25.739  1.00  0.00     0.099 A 
HETATM   33  C   UNL     1      -0.588  21.953 -24.453  1.00  0.00     0.053 A 
BRANCH  31  34
HETATM   34  O   UNL     1       0.856  20.153 -27.271  1.00  0.00    -0.358 OA
HETATM   35  H   UNL     1       1.356  19.318 -27.283  1.00  0.00     0.217 HD
ENDBRANCH  31  34
BRANCH  32  36
HETATM   36  O   UNL     1      -0.552  22.414 -26.779  1.00  0.00    -0.358 OA
HETATM   37  H   UNL     1      -0.194  21.967 -27.573  1.00  0.00     0.217 HD
ENDBRANCH  32  36
ENDBRANCH   4  28
BRANCH   8  38
HETATM   38  O   UNL     1      -2.538  22.172 -17.341  1.00  0.00    -0.360 OA
HETATM   39  H   UNL     1      -3.055  21.534 -17.883  1.00  0.00     0.217 HD
ENDBRANCH   8  38
BRANCH  11  40
HETATM   40  O   UNL     1       1.241  24.970 -17.577  1.00  0.00    -0.361 OA
HETATM   41  H   UNL     1       1.945  25.252 -18.185  1.00  0.00     0.217 HD
ENDBRANCH  11  40
TORSDOF 12
